       8
 i =       0, E =      -14.9475758918
  C         6.7673905320        5.9998569127        5.9995617160
  C         5.2325669327        6.0001339844        6.0005062924
  H         4.8256736118        5.3113707892        6.6953176296
  H         4.8260789454        5.7416224525        5.0558034492
  H         4.8257298503        6.9463632111        6.2480228842
  H         7.1743906409        5.3120782654        5.3047787300
  H         7.1741522617        6.9466301145        5.7515395185
  H         7.1744815438        5.7420436384        6.9437273953
       8
 i =       1, E =      -14.9522326318
  C         6.7444575438        6.0003174016        6.0002252507
  C         5.2554486102        5.9997522634        5.9997476143
  H         4.8183020892        5.2940104205        6.7130371208
  H         4.8188668824        5.7351032130        5.0323412197
  H         4.8182908833        6.9706107595        6.2543450769
  H         7.1818776596        5.2943956952        5.2867771079
  H         7.1814470480        6.9705477491        5.7453218597
  H         7.1817703992        5.7354432139        6.9674624322
       8
 i =       2, E =      -14.9532682629
  C         6.7729688450        5.9999969179        5.9997787395
  C         5.2270328904        6.0000837926        6.0002142480
  H         4.8197985098        5.2899518617        6.7168199253
  H         4.8201857229        5.7337131191        5.0265079212
  H         4.8198113653        6.9757371056        6.2559862348
  H         7.1802976681        5.2904689709        5.2831287850
  H         7.1800091864        6.9760623899        5.7436151962
  H         7.1803562969        5.7341141332        6.9732038067
       8
 i =       3, E =      -14.9536279591
  C         6.7614699660        6.0002608249        6.0001665656
  C         5.2385587340        5.9998081069        5.9997750751
  H         4.8180473879        5.2849241298        6.7225319074
  H         4.8184923546        5.7313792211        5.0195684336
  H         4.8179998987        6.9832926612        6.2576207023
  H         7.1821030730        5.2852593549        5.2772732142
  H         7.1817291306        6.9833889540        5.7420584944
  H         7.1820576502        5.7317372382        6.9802583002
       8
 i =       4, E =      -14.9536689315
  C         6.7732114707        5.9999837036        5.9997774794
  C         5.2268603987        6.0000672337        6.0001689410
  H         4.8201023019        5.2847037167        6.7225894469
  H         4.8204028470        5.7313332653        5.0190699865
  H         4.8200611997        6.9832600478        6.2577912471
  H         7.1799999002        5.2851515592        5.2773272450
  H         7.1797431435        6.9836673587        5.7418380840
  H         7.1800767203        5.7317419536        6.9806850075
       8
 i =       5, E =      -14.9537276045
  C         6.7650462654        6.0002583084        6.0001773161
  C         5.2350386997        5.9997521580        5.9997296390
  H         4.8196724984        5.2827550467        6.7247670212
  H         4.8200270785        5.7305313975        5.0166052157
  H         4.8195628638        6.9862210741        6.2585154002
  H         7.1804948250        5.2830254221        5.2750074771
  H         7.1801533472        6.9863560167        5.7411954849
  H         7.1804616573        5.7308950588        6.9832456642
       8
 i =       6, E =      -14.9537293188
  C         6.7721035946        5.9999133796        5.9996867176
  C         5.2279993516        6.0000805636        6.0002268544
  H         4.8214877080        5.2833741449        6.7237339159
  H         4.8216848469        5.7309851073        5.0173514834
  H         4.8213973968        6.9847866752        6.2584579222
  H         7.1786272114        5.2838135109        5.2761928032
  H         7.1784201943        6.9852801068        5.7411831820
  H         7.1787392702        5.7314099386        6.9824032554
       8
 i =       7, E =      -14.9537681971
  C         6.7697248377        6.0000524154        5.9998868182
  C         5.2303795465        5.9999231190        6.0000141151
  H         4.8213986360        5.2829020925        6.7242261220
  H         4.8216261827        5.7308483826        5.0168520755
  H         4.8212775387        6.9855073527        6.2586716265
  H         7.1787493585        5.2832577329        5.2756308522
  H         7.1784975114        6.9858572454        5.7410076648
  H         7.1788058831        5.7312504906        6.9829447776
       8
 i =       8, E =      -14.9537134527
  C         6.7634062814        6.0002660830        6.0002025434
  C         5.2367152728        5.9996206337        5.9996467661
  H         4.8221730187        5.2813321267        6.7255712265
  H         4.8223738156        5.7305530334        5.0151560335
  H         4.8219536109        6.9874619923        6.2595101317
  H         7.1780546426        5.2815332551        5.2741654970
  H         7.1777535748        6.9875856634        5.7402483979
  H         7.1780354736        5.7309216149        6.9847162813
       8
 i =       9, E =      -14.9537862356
  C         6.7689417402        5.9999947435        5.9998128475
  C         5.2311803006        5.9998877176        6.0000519131
  H         4.8231720573        5.2820257755        6.7244688220
  H         4.8232625007        5.7310519047        5.0160646926
  H         4.8229785541        6.9859963429        6.2594007410
  H         7.1770136165        5.2823730632        5.2753905128
  H         7.1768103755        6.9863926367        5.7402950243
  H         7.1771083761        5.7314678414        6.9837272672
       8
 i =      10, E =      -14.9537702275
  C         6.7651078776        6.0002773553        6.0002291751
  C         5.2350153513        5.9995139266        5.9995989423
  H         4.8235697185        5.2810323134        6.7250444337
  H         4.8236635888        5.7311508333        5.0153319930
  H         4.8232791487        6.9870506914        6.2601026704
  H         7.1767090480        5.2812040672        5.2746631817
  H         7.1764231979        6.9871322235        5.7396781528
  H         7.1767049902        5.7315206222        6.9845443870
       8
 i =      11, E =      -14.9537967265
  C         6.7683276065        5.9999363038        5.9997389002
  C         5.2317957838        5.9998567218        6.0001013865
  H         4.8241514233        5.2814093201        6.7243668444
  H         4.8241181775        5.7314135874        5.0156892100
  H         4.8239007766        6.9860741948        6.2600318296
  H         7.1760684630        5.2817706444        5.2754993077
  H         7.1759025791        6.9864994333        5.7396676916
  H         7.1762095117        5.7318407342        6.9840921462
       8
 i =      12, E =      -14.9537988546
  C         6.7682515731        5.9999551361        5.9997694658
  C         5.2318715775        5.9998128811        6.0000646263
  H         4.8243497148        5.2812625265        6.7243354223
  H         4.8242959455        5.7315174090        5.0156384079
  H         4.8240803201        6.9861031067        6.2601937452
  H         7.1758850680        5.2816083933        5.2755154375
  H         7.1757162354        6.9865009353        5.7395142874
  H         7.1760249427        5.7319417180        6.9841492196
       8
 i =      13, E =      -14.9537980311
  C         6.7663836469        6.0001708243        6.0000930058
  C         5.2337373256        5.9995103894        5.9997150524
  H         4.8245264060        5.2805804821        6.7245631526
  H         4.8244633575        5.7317302851        5.0152784315
  H         4.8241797984        6.9866751100        6.2607657574
  H         7.1757817068        5.2807917579        5.2751645435
  H         7.1755465006        6.9868256666        5.7390050406
  H         7.1758569936        5.7321185446        6.9845736836
       8
 i =      14, E =      -14.9538047757
  C         6.7673175933        6.0000117173        5.9998649816
  C         5.2328045159        5.9996685886        5.9999472063
  H         4.8247003255        5.2806771214        6.7243372284
  H         4.8245777135        5.7318140789        5.0153355188
  H         4.8243724017        6.9863351449        6.2607560311
  H         7.1755798641        5.2809775309        5.2754644134
  H         7.1753999943        6.9866450658        5.7389766765
  H         7.1757242113        5.7322288016        6.9844729761
       8
 i =      15, E =      -14.9538066967
  C         6.7683859081        5.9998658090        5.9996612903
  C         5.2317381946        5.9997851606        6.0001500933
  H         4.8249956467        5.2806669479        6.7240152323
  H         4.8247906342        5.7320332777        5.0154083192
  H         4.8246696210        6.9859430915        6.2609022610
  H         7.1752694202        5.2810444514        5.2758457897
  H         7.1751419818        6.9863895831        5.7387983271
  H         7.1754874388        5.7324723048        6.9843609903
       8
 i =      16, E =      -14.9538092368
  C         6.7674438048        5.9999926705        5.9998488708
  C         5.2326796318        5.9996271882        5.9999530609
  H         4.8249366267        5.2804124158        6.7241491075
  H         4.8247496041        5.7320879815        5.0152861096
  H         4.8245791947        6.9862306816        6.2610996944
  H         7.1753620689        5.2807137975        5.2756434297
  H         7.1751918637        6.9865388830        5.7386345157
  H         7.1755365090        5.7325058981        6.9845198326
       8
 i =      17, E =      -14.9538113171
  C         6.7680948156        5.9998275628        5.9996182426
  C         5.2320287794        5.9997662441        6.0001813146
  H         4.8251351312        5.2803537740        6.7239056737
  H         4.8248647855        5.7322568685        5.0152575484
  H         4.8247853166        6.9859225330        6.2612412886
  H         7.1751426252        5.2807446877        5.2759566499
  H         7.1750302199        6.9863874522        5.7384555870
  H         7.1753985890        5.7327018786        6.9845054383
       8
 i =      18, E =      -14.9538131094
  C         6.7675538722        5.9999666994        5.9998230155
  C         5.2325689026        5.9995964608        5.9999700825
  H         4.8251083155        5.2801710621        6.7239701067
  H         4.8248610596        5.7323397329        5.0152383450
  H         4.8247263651        6.9861235947        6.2614133941
  H         7.1752047847        5.2804785067        5.2758172493
  H         7.1750448065        6.9864381262        5.7383196756
  H         7.1754116973        5.7327620968        6.9845624394
       8
 i =      19, E =      -14.9538150360
  C         6.7675513006        5.9999380693        5.9997882323
  C         5.2325711153        5.9995965269        5.9999997058
  H         4.8251823874        5.2800384748        6.7238852478
  H         4.8249002097        5.7324615331        5.0151893478
  H         4.8247905389        6.9860703183        6.2615740728
  H         7.1751346110        5.2803581952        5.2759070669
  H         7.1749848266        6.9864034572        5.7381546494
  H         7.1753647574        5.7328885767        6.9846051434
       8
 i =      20, E =      -14.9538173756
  C         6.7679030144        5.9997934756        5.9995887569
  C         5.2322197012        5.9997093604        6.0001938114
  H         4.8253129059        5.2799226809        6.7236868801
  H         4.8249534703        5.7326266512        5.0151161150
  H         4.8249254993        6.9858374162        6.2617481419
  H         7.1749867342        5.2803204856        5.2761639469
  H         7.1748862264        6.9863042887        5.7379482878
  H         7.1752920590        5.7330773518        6.9846414386
       8
 i =      21, E =      -14.9538187092
  C         6.7676131325        5.9999068683        5.9997559360
  C         5.2325086897        5.9995702934        6.0000230950
  H         4.8252986746        5.2797968329        6.7237075392
  H         4.8249579724        5.7327091915        5.0151354592
  H         4.8248853863        6.9859621854        6.2618838988
  H         7.1750296957        5.2801261306        5.2760810693
  H         7.1748898024        6.9863067494        5.7378416694
  H         7.1752954518        5.7331417410        6.9846517650
       8
 i =      22, E =      -14.9538197672
  C         6.7675864735        5.9998917039        5.9997380375
  C         5.2325351098        5.9995688186        6.0000376101
  H         4.8253224478        5.2797195602        6.7236618362
  H         4.8249634371        5.7327772714        5.0151058855
  H         4.8249041239        6.9859357672        6.2619752073
  H         7.1750076863        5.2800554639        5.2761287405
  H         7.1748725328        6.9862897920        5.7377478894
  H         7.1752865431        5.7332123287        6.9846780151
       8
 i =      23, E =      -14.9538216163
  C         6.7677386426        5.9998074299        5.9996238070
  C         5.2323831636        5.9996273487        6.0001470674
  H         4.8253895497        5.2796172728        6.7235352532
  H         4.8249814581        5.7328983701        5.0150496935
  H         4.8249716540        6.9858016117        6.2621137332
  H         7.1749317450        5.2799980715        5.2762868804
  H         7.1748244379        6.9862312419        5.7375907196
  H         7.1752572675        5.7333472772        6.9847128326
       8
 i =      24, E =      -14.9538232396
  C         6.7675692514        5.9998870822        5.9997444306
  C         5.2325515982        5.9995152199        6.0000223144
  H         4.8253979715        5.2794751692        6.7235021072
  H         4.8249922343        5.7330200707        5.0150627175
  H         4.8249562966        6.9858612995        6.2622834292
  H         7.1749473061        5.2798058471        5.2762710553
  H         7.1748113921        6.9862004044        5.7374421733
  H         7.1752507032        5.7334565312        6.9847202688
       8
 i =       0, E =      -14.9538231751
  C         6.7675090672        6.0000394179        5.9998273364
  C         5.2324913838        5.9999865663        6.0001739034
  H         4.8252204942        5.2800132712        6.7236541296
  H         4.8248325720        5.7336004634        5.0152259634
  H         4.8251128164        6.9864108528        6.2624776218
  H         7.1747050879        5.2798914120        5.2763179449
  H         7.1749444452        6.9862745644        5.7375312184
  H         7.1751792109        5.7334998064        6.9847783483
       8
 i =       1, E =      -14.9538266998
  C         6.7679890435        5.9996083507        5.9992444045
  C         5.2320077414        6.0003588425        6.0007718820
  H         4.8254295435        5.2797006455        6.7232875927
  H         4.8248008692        5.7338817632        5.0149734654
  H         4.8253338608        6.9858579069        6.2628774362
  H         7.1744329251        5.2797977607        5.2768648273
  H         7.1748341924        6.9861056147        5.7370363713
  H         7.1751667011        5.7338451407        6.9849306766
       8
 i =       2, E =      -14.9538290292
  C         6.7673716125        6.0001249323        5.9999971294
  C         5.2326270501        5.9997211281        6.0000010219
  H         4.8253503674        5.2795138146        6.7234280906
  H         4.8248513310        5.7340488497        5.0152916873
  H         4.8251431924        6.9863723869        6.2631427275
  H         7.1746247642        5.2792898412        5.2764532439
  H         7.1748587761        6.9860448017        5.7369101765
  H         7.1751677136        5.7339200120        6.9847634765
       8
 i =       3, E =      -14.9538286588
  C         6.7676981885        5.9996826430        5.9993810555
  C         5.2323001855        6.0001907188        6.0006248303
  H         4.8254257439        5.2795904705        6.7233536908
  H         4.8247740759        5.7339097567        5.0150451772
  H         4.8252878103        6.9859612850        6.2630013968
  H         7.1744602314        5.2796215232        5.2767450153
  H         7.1748458499        6.9860860693        5.7369419316
  H         7.1752025916        5.7338516178        6.9848941772
       8
 i =       4, E =      -14.9538271644
  C         6.7674803157        6.0000449023        5.9998994960
  C         5.2325183830        5.9997467594        6.0001016196
  H         4.8253953645        5.2796444536        6.7235522247
  H         4.8248221460        5.7338423930        5.0153820318
  H         4.8251790294        6.9862984824        6.2629793640
  H         7.1745712013        5.2794481754        5.2763540695
  H         7.1748398405        6.9860230676        5.7370604015
  H         7.1751883978        5.7337207711        6.9846585968
       8
 i =       5, E =      -14.9538248412
  C         6.7676047335        5.9997139444        5.9994496777
  C         5.2323937856        6.0000829628        6.0005525038
  H         4.8254283529        5.2798027828        6.7236417330
  H         4.8247399481        5.7335666728        5.0152313619
  H         4.8252603724        6.9860659078        6.2627202113
  H         7.1744721615        5.2797942703        5.2764252065
  H         7.1748546926        6.9861207004        5.7372398788
  H         7.1752405530        5.7334961127        6.9847271377
       8
 i =       6, E =      -14.9538221562
  C         6.7675297800        5.9999650376        5.9998040768
  C         5.2324689425        5.9997722588        6.0001978944
  H         4.8254136377        5.2799387310        6.7238621806
  H         4.8247707426        5.7333972198        5.0155169174
  H         4.8251899885        6.9863100586        6.2625825552
  H         7.1745436959        5.2797707448        5.2760695900
  H         7.1748454886        6.9860861852        5.7374444624
  H         7.1752323307        5.7332827712        6.9845103894
       8
 i =       7, E =      -14.9538212220
  C         6.7675487319        5.9998704310        5.9996786668
  C         5.2324499455        5.9998634365        6.0003227564
  H         4.8254196836        5.2800031901        6.7239182257
  H         4.8247424980        5.7332837115        5.0154825332
  H         4.8252086584        6.9862585215        6.2624793766
  H         7.1745191355        5.2798876242        5.2760585700
  H         7.1748536180        6.9861264289        5.7375255799
  H         7.1752523202        5.7331833528        6.9845223663
       8
 i =       8, E =      -14.9538017299
  C         6.7676772286        5.9993746515        5.9990540532
  C         5.2323212213        6.0002100455        6.0009434162
  H         4.8254607751        5.2809917618        6.7249764138
  H         4.8245074099        5.7317053679        5.0157052425
  H         4.8252737942        6.9861990126        6.2610732078
  H         7.1743959261        5.2811111745        5.2752054391
  H         7.1749133925        6.9864809124        5.7388320231
  H         7.1754446539        5.7316668478        6.9841988279
       8
 i =       9, E =      -14.9538022196
  C         6.7675929813        5.9997469468        5.9995653095
  C         5.2324057698        5.9997844259        6.0004362219
  H         4.8254378774        5.2810374706        6.7251240229
  H         4.8245732770        5.7316878461        5.0160230096
  H         4.8251803883        6.9865127996        6.2610763717
  H         7.1744995927        5.2809303628        5.2748641036
  H         7.1748930094        6.9863992279        5.7389230284
  H         7.1754115209        5.7315877733        6.9839767978
       8
 i =      10, E =      -14.9537934481
  C         6.7675608761        5.9995636313        5.9993742181
  C         5.2324376544        5.9998454244        6.0006124639
  H         4.8254402716        5.2814652408        6.7257331971
  H         4.8244476512        5.7309127122        5.0161712763
  H         4.8251795687        6.9866041538        6.2604477595
  H         7.1744710613        5.2814276372        5.2743186867
  H         7.1749297748        6.9866067820        5.7395249297
  H         7.1755274641        5.7308283092        6.9838069777
       8
 i =      11, E =      -14.9537935933
  C         6.7676193795        5.9996870455        5.9995134625
  C         5.2323792619        5.9997103258        6.0004867605
  H         4.8254545163        5.2814699323        6.7257397788
  H         4.8244716243        5.7309392424        5.0162756379
  H         4.8251698998        6.9866608060        6.2604832329
  H         7.1744851208        5.2813552998        5.2742452062
  H         7.1749036881        6.9865368719        5.7395187227
  H         7.1755108445        5.7308364644        6.9837265317
       8
 i =      12, E =      -14.9537936004
  C         6.7676196717        5.9996694655        5.9994951899
  C         5.2323789674        5.9997171241        6.0005044723
  H         4.8254599706        5.2814649559        6.7257471498
  H         4.8244641746        5.7309321496        5.0162760457
  H         4.8251753375        6.9866478485        6.2604885525
  H         7.1744771505        5.2813570378        5.2742439568
  H         7.1749018761        6.9865356966        5.7395105645
  H         7.1755171739        5.7308309830        6.9837234235
       8
 i =      13, E =      -14.9537936010
  C         6.7676266869        5.9997017586        5.9995294463
  C         5.2323719601        5.9997092437        6.0004720886
  H         4.8254491398        5.2814760241        6.7257281458
  H         4.8244807994        5.7309484161        5.0162721955
  H         4.8251658141        6.9866696787        6.2604763219
  H         7.1744923462        5.2813568850        5.2742526031
  H         7.1749053098        6.9865384130        5.7395273645
  H         7.1755022920        5.7308447400        6.9837311108
       8
 i =      14, E =      -14.9537935965
  C         6.7676090233        5.9996302099        5.9994518585
  C         5.2323896001        5.9997550686        6.0005446181
  H         4.8254594394        5.2814620684        6.7257467542
  H         4.8244560618        5.7309235308        5.0162500108
  H         4.8251810829        6.9866259260        6.2604818686
  H         7.1744694207        5.2813767304        5.2742640047
  H         7.1749069460        6.9865515211        5.7395084500
  H         7.1755227437        5.7308279007        6.9837418023
       8
 i =      15, E =      -14.9537915506
  C         6.7676955311        5.9999816131        5.9998516054
  C         5.2323034046        5.9992092681        6.0001762775
  H         4.8255598650        5.2814318160        6.7259309170
  H         4.8244489748        5.7309002979        5.0167066344
  H         4.8251695120        6.9867963307        6.2606689128
  H         7.1744642514        5.2810798777        5.2738532647
  H         7.1747962983        6.9862773693        5.7394243174
  H         7.1755564113        5.7307364664        6.9833774701
       8
 i =      16, E =      -14.9537930242
  C         6.7676466117        5.9997027370        5.9995453985
  C         5.2323521277        5.9994804882        6.0004648152
  H         4.8255584646        5.2814103099        6.7259293864
  H         4.8243866529        5.7308383314        5.0165257838
  H         4.8252124985        6.9866364727        6.2606244789
  H         7.1744075033        5.2812180832        5.2739934609
  H         7.1748308593        6.9863876090        5.7394053555
  H         7.1755995010        5.7307145719        6.9835008644
       8
 i =      17, E =      -14.9537933307
  C         6.7676100753        5.9995241424        5.9993484212
  C         5.2323885503        5.9996459673        6.0006484224
  H         4.8255600362        5.2813859762        6.7259315348
  H         4.8243418751        5.7308028454        5.0164149729
  H         4.8252401549        6.9865345849        6.2606108248
  H         7.1743690755        5.2812940400        5.2740787811
  H         7.1748516432        6.9864538971        5.7393796410
  H         7.1756327740        5.7307036932        6.9835772243
       8
 i =      18, E =      -14.9537945497
  C         6.7676231853        5.9997070727        5.9995437574
  C         5.2323756212        5.9993733559        6.0004611485
  H         4.8256009283        5.2812545366        6.7259360037
  H         4.8243263788        5.7309291114        5.0165860391
  H         4.8252238229        6.9866192384        6.2608512281
  H         7.1743746266        5.2810291668        5.2739613602
  H         7.1748046973        6.9863100894        5.7391924083
  H         7.1756649024        5.7307941022        6.9834582728
       8
 i =      19, E =      -14.9537956299
  C         6.7676156612        5.9994848222        5.9993053915
  C         5.2323829494        5.9995894277        6.0006924638
  H         4.8256093242        5.2811992321        6.7258937045
  H         4.8242805388        5.7309351334        5.0164390552
  H         4.8252674898        6.9864658342        6.2608732539
  H         7.1743210677        5.2810989034        5.2741117711
  H         7.1748234351        6.9863727213        5.7391192472
  H         7.1756936466        5.7308329439        6.9835554265
       8
 i =      20, E =      -14.9538011828
  C         6.7676021919        5.9995853264        5.9994022021
  C         5.2323963865        5.9994045907        6.0005950752
  H         4.8256694902        5.2808356374        6.7256472087
  H         4.8242717150        5.7313741445        5.0164719837
  H         4.8252847268        6.9864059630        6.2614191914
  H         7.1742883232        5.2806518931        5.2742895358
  H         7.1747671313        6.9861682248        5.7386069643
  H         7.1757141052        5.7312477095        6.9835583692
       8
 i =      21, E =      -14.9538016700
  C         6.7676028023        5.9994805977        5.9992948725
  C         5.2323957544        5.9995065860        6.0007025791
  H         4.8256745686        5.2808080625        6.7256277672
  H         4.8242491274        5.7313782782        5.0164066435
  H         4.8253064727        6.9863311716        6.2614321693
  H         7.1742624850        5.2806822930        5.2743587758
  H         7.1747751300        6.9861956665        5.7385695194
  H         7.1757276981        5.7312678003        6.9835981484
       8
 i =      22, E =      -14.9538032724
  C         6.7676013936        5.9993821786        5.9991901383
  C         5.2323972017        5.9995821427        6.0008078836
  H         4.8256947521        5.2806982684        6.7255550645
  H         4.8242176693        5.7314768485        5.0163421382
  H         4.8253351210        6.9862312887        6.2615680875
  H         7.1742248250        5.2806199737        5.2744740738
  H         7.1747716153        6.9861814694        5.7384126488
  H         7.1757513993        5.7313784766        6.9836404363
       8
 i =      23, E =      -14.9538048243
  C         6.7675951611        5.9995605098        5.9993697788
  C         5.2324034446        5.9993765839        6.0006275000
  H         4.8257100862        5.2805971453        6.7254923478
  H         4.8242405214        5.7316356241        5.0164443356
  H         4.8253113389        6.9863121638        6.2617581444
  H         7.1742473615        5.2804097339        5.2744440365
  H         7.1747410566        6.9860703987        5.7382681861
  H         7.1757450075        5.7315068305        6.9835863610
       8
 i =      24, E =      -14.9538056295
  C         6.7675969872        5.9994069835        5.9992117592
  C         5.2324015421        5.9995273339        6.0007857360
  H         4.8257178133        5.2805480756        6.7254553260
  H         4.8242082292        5.7316534302        5.0163433932
  H         4.8253437193        6.9862002677        6.2617883646
  H         7.1742090557        5.2804460653        5.2745543462
  H         7.1747524805        6.9861090025        5.7382019082
  H         7.1757641009        5.7315481144        6.9836497780
       8
 i =      25, E =      -14.9538087291
  C         6.7675924544        5.9995109191        5.9993087876
  C         5.2324061902        5.9993841083        6.0006896109
  H         4.8257489284        5.2803506548        6.7253160274
  H         4.8242103129        5.7319108173        5.0163845413
  H         4.8253431805        6.9861996757        6.2620997364
  H         7.1742019670        5.2801768430        5.2746334453
  H         7.1747189101        6.9859837452        5.7379197736
  H         7.1757719440        5.7317854272        6.9836388543
       8
 i =      26, E =      -14.9538092763
  C         6.7675914853        5.9994297916        5.9992269658
  C         5.2324070874        5.9994633494        6.0007707871
  H         4.8257533221        5.2803170248        6.7252919075
  H         4.8241932401        5.7319292696        5.0163307614
  H         4.8253605562        6.9861388871        6.2621257771
  H         7.1741813160        5.2801883688        5.2746964755
  H         7.1747245844        6.9860021338        5.7378747587
  H         7.1757822681        5.7318160413        6.9836733228
       8
 i =      27, E =      -14.9538124913
  C         6.7675859573        5.9992948076        5.9990828084
  C         5.2324124647        5.9995719734        6.0009141152
  H         4.8257843941        5.2801023045        6.7251341638
  H         4.8241527555        5.7321498747        5.0162183366
  H         4.8254039974        6.9859845782        6.2623975113
  H         7.1741248954        5.2800407360        5.2749131587
  H         7.1747171478        6.9859665399        5.7375741638
  H         7.1758121597        5.7320542493        6.9837565740
       8
 i =      28, E =      -14.9538133544
  C         6.7675847576        5.9994213721        5.9992080459
  C         5.2324137810        5.9994347470        6.0007900384
  H         4.8257912604        5.2800599578        6.7251018457
  H         4.8241727473        5.7322350771        5.0162890706
  H         4.8253851921        6.9860485529        6.2624931035
  H         7.1741444482        5.2799230980        5.2748814016
  H         7.1746985252        6.9858992805        5.7375097821
  H         7.1758030757        5.7321188436        6.9837176294
       8
 i =      29, E =      -14.9538153179
  C         6.7675815004        5.9993062884        5.9990884503
  C         5.2324169670        5.9995384002        6.0009080557
  H         4.8258089748        5.2799291719        6.7250040828
  H         4.8241434283        5.7323636336        5.0161991366
  H         4.8254172150        6.9859348643        6.2626494545
  H         7.1741040800        5.2798533414        5.2750324559
  H         7.1746983355        6.9858925788        5.7373275642
  H         7.1758232266        5.7322633270        6.9837817525
       8
 i =      30, E =      -14.9538162773
  C         6.7675799878        5.9994202455        5.9991980401
  C         5.2324185548        5.9994143536        6.0008003229
  H         4.8258171871        5.2798788038        6.7249634058
  H         4.8241602461        5.7324566527        5.0162583720
  H         4.8254016056        6.9859877229        6.2627540395
  H         7.1741197762        5.2797346710        5.2750149785
  H         7.1746803649        6.9858270083        5.7372510992
  H         7.1758160159        5.7323378483        6.9837507689
       8
 i =      31, E =      -14.9538167114
  C         6.7675792936        5.9993893219        5.9991665632
  C         5.2324192261        5.9994436103        6.0008312817
  H         4.8258207189        5.2798510478        6.7249425954
  H         4.8241530689        5.7324825714        5.0162353023
  H         4.8254095185        6.9859597247        6.2627853213
  H         7.1741100227        5.2797238161        5.2750504835
  H         7.1746811699        6.9858285249        5.7372127005
  H         7.1758207066        5.7323681841        6.9837667810
