       8
 i =       0, E =      -14.9559535703
  C         6.7639332112        5.9999367113        5.9997196859
  C         5.2359742268        6.0000770490        6.0003068494
  H         4.8330114588        5.1032143276        6.4926635078
  H         4.8328900570        6.0217048371        4.9775437634
  H         4.8328441865        6.8748541816        6.5303098486
  H         7.1673157026        5.1035905676        5.5077530211
  H         7.1673441285        6.8744547570        5.4695324023
  H         7.1676974442        6.0220173597        7.0218812609
       8
 i =       1, E =      -14.9559535703
  C         6.7639332112        5.9999367113        5.9997196859
  C         5.2359742268        6.0000770490        6.0003068494
  H         4.8330114588        5.1032143276        6.4926635078
  H         4.8328900570        6.0217048371        4.9775437634
  H         4.8328441865        6.8748541816        6.5303098486
  H         7.1673157026        5.1035905676        5.5077530211
  H         7.1673441285        6.8744547570        5.4695324023
  H         7.1676974442        6.0220173597        7.0218812609
       8
 i =       2, E =      -14.9559535703
  C         6.7639332112        5.9999367113        5.9997196859
  C         5.2359742268        6.0000770490        6.0003068494
  H         4.8330114588        5.1032143276        6.4926635078
  H         4.8328900570        6.0217048371        4.9775437634
  H         4.8328441865        6.8748541816        6.5303098486
  H         7.1673157026        5.1035905676        5.5077530211
  H         7.1673441285        6.8744547570        5.4695324023
  H         7.1676974442        6.0220173597        7.0218812609
       8
 i =       3, E =      -14.9559535703
  C         6.7639332112        5.9999367113        5.9997196859
  C         5.2359742268        6.0000770490        6.0003068494
  H         4.8330114588        5.1032143276        6.4926635078
  H         4.8328900570        6.0217048371        4.9775437634
  H         4.8328441865        6.8748541816        6.5303098486
  H         7.1673157026        5.1035905676        5.5077530211
  H         7.1673441285        6.8744547570        5.4695324023
  H         7.1676974442        6.0220173597        7.0218812609
       8
 i =       4, E =      -14.9559535703
  C         6.7639332112        5.9999367113        5.9997196859
  C         5.2359742268        6.0000770490        6.0003068494
  H         4.8330114588        5.1032143276        6.4926635078
  H         4.8328900570        6.0217048371        4.9775437634
  H         4.8328441865        6.8748541816        6.5303098486
  H         7.1673157026        5.1035905676        5.5077530211
  H         7.1673441285        6.8744547570        5.4695324023
  H         7.1676974442        6.0220173597        7.0218812609
       8
 i =       5, E =      -14.9559535703
  C         6.7639332112        5.9999367113        5.9997196859
  C         5.2359742268        6.0000770490        6.0003068494
  H         4.8330114588        5.1032143276        6.4926635078
  H         4.8328900570        6.0217048371        4.9775437634
  H         4.8328441865        6.8748541816        6.5303098486
  H         7.1673157026        5.1035905676        5.5077530211
  H         7.1673441285        6.8744547570        5.4695324023
  H         7.1676974442        6.0220173597        7.0218812609
       8
 i =       6, E =      -14.9559535703
  C         6.7639332112        5.9999367113        5.9997196859
  C         5.2359742268        6.0000770490        6.0003068494
  H         4.8330114588        5.1032143276        6.4926635078
  H         4.8328900570        6.0217048371        4.9775437634
  H         4.8328441865        6.8748541816        6.5303098486
  H         7.1673157026        5.1035905676        5.5077530211
  H         7.1673441285        6.8744547570        5.4695324023
  H         7.1676974442        6.0220173597        7.0218812609
       8
 i =       7, E =      -14.9559535703
  C         6.7639332112        5.9999367113        5.9997196859
  C         5.2359742268        6.0000770490        6.0003068494
  H         4.8330114588        5.1032143276        6.4926635078
  H         4.8328900570        6.0217048371        4.9775437634
  H         4.8328441865        6.8748541816        6.5303098486
  H         7.1673157026        5.1035905676        5.5077530211
  H         7.1673441285        6.8744547570        5.4695324023
  H         7.1676974442        6.0220173597        7.0218812609
       8
 i =       8, E =      -14.9559535703
  C         6.7639332112        5.9999367113        5.9997196859
  C         5.2359742268        6.0000770490        6.0003068494
  H         4.8330114588        5.1032143276        6.4926635078
  H         4.8328900570        6.0217048371        4.9775437634
  H         4.8328441865        6.8748541816        6.5303098486
  H         7.1673157026        5.1035905676        5.5077530211
  H         7.1673441285        6.8744547570        5.4695324023
  H         7.1676974442        6.0220173597        7.0218812609
       8
 i =       9, E =      -14.9559535703
  C         6.7639332112        5.9999367113        5.9997196859
  C         5.2359742268        6.0000770490        6.0003068494
  H         4.8330114588        5.1032143276        6.4926635078
  H         4.8328900570        6.0217048371        4.9775437634
  H         4.8328441865        6.8748541816        6.5303098486
  H         7.1673157026        5.1035905676        5.5077530211
  H         7.1673441285        6.8744547570        5.4695324023
  H         7.1676974442        6.0220173597        7.0218812609
       8
 i =      10, E =      -14.9559535703
  C         6.7639332112        5.9999367113        5.9997196859
  C         5.2359742268        6.0000770490        6.0003068494
  H         4.8330114588        5.1032143276        6.4926635078
  H         4.8328900570        6.0217048371        4.9775437634
  H         4.8328441865        6.8748541816        6.5303098486
  H         7.1673157026        5.1035905676        5.5077530211
  H         7.1673441285        6.8744547570        5.4695324023
  H         7.1676974442        6.0220173597        7.0218812609
       8
 i =      11, E =      -14.9559535703
  C         6.7639332112        5.9999367113        5.9997196859
  C         5.2359742268        6.0000770490        6.0003068494
  H         4.8330114588        5.1032143276        6.4926635078
  H         4.8328900570        6.0217048371        4.9775437634
  H         4.8328441865        6.8748541816        6.5303098486
  H         7.1673157026        5.1035905676        5.5077530211
  H         7.1673441285        6.8744547570        5.4695324023
  H         7.1676974442        6.0220173597        7.0218812609
       8
 i =      12, E =      -14.9559535703
  C         6.7639332112        5.9999367113        5.9997196859
  C         5.2359742268        6.0000770490        6.0003068494
  H         4.8330114588        5.1032143276        6.4926635078
  H         4.8328900570        6.0217048371        4.9775437634
  H         4.8328441865        6.8748541816        6.5303098486
  H         7.1673157026        5.1035905676        5.5077530211
  H         7.1673441285        6.8744547570        5.4695324023
  H         7.1676974442        6.0220173597        7.0218812609
       8
 i =      13, E =      -14.9559535703
  C         6.7639332112        5.9999367113        5.9997196859
  C         5.2359742268        6.0000770490        6.0003068494
  H         4.8330114588        5.1032143276        6.4926635078
  H         4.8328900570        6.0217048371        4.9775437634
  H         4.8328441865        6.8748541816        6.5303098486
  H         7.1673157026        5.1035905676        5.5077530211
  H         7.1673441285        6.8744547570        5.4695324023
  H         7.1676974442        6.0220173597        7.0218812609
       8
 i =      14, E =      -14.9559535703
  C         6.7639332112        5.9999367113        5.9997196859
  C         5.2359742268        6.0000770490        6.0003068494
  H         4.8330114588        5.1032143276        6.4926635078
  H         4.8328900570        6.0217048371        4.9775437634
  H         4.8328441865        6.8748541816        6.5303098486
  H         7.1673157026        5.1035905676        5.5077530211
  H         7.1673441285        6.8744547570        5.4695324023
  H         7.1676974442        6.0220173597        7.0218812609
       8
 i =      15, E =      -14.9559535703
  C         6.7639332112        5.9999367113        5.9997196859
  C         5.2359742268        6.0000770490        6.0003068494
  H         4.8330114588        5.1032143276        6.4926635078
  H         4.8328900570        6.0217048371        4.9775437634
  H         4.8328441865        6.8748541816        6.5303098486
  H         7.1673157026        5.1035905676        5.5077530211
  H         7.1673441285        6.8744547570        5.4695324023
  H         7.1676974442        6.0220173597        7.0218812609
       8
 i =      16, E =      -14.9559535703
  C         6.7639332112        5.9999367113        5.9997196859
  C         5.2359742268        6.0000770490        6.0003068494
  H         4.8330114588        5.1032143276        6.4926635078
  H         4.8328900570        6.0217048371        4.9775437634
  H         4.8328441865        6.8748541816        6.5303098486
  H         7.1673157026        5.1035905676        5.5077530211
  H         7.1673441285        6.8744547570        5.4695324023
  H         7.1676974442        6.0220173597        7.0218812609
       8
 i =      17, E =      -14.9559535703
  C         6.7639332112        5.9999367113        5.9997196859
  C         5.2359742268        6.0000770490        6.0003068494
  H         4.8330114588        5.1032143276        6.4926635078
  H         4.8328900570        6.0217048371        4.9775437634
  H         4.8328441865        6.8748541816        6.5303098486
  H         7.1673157026        5.1035905676        5.5077530211
  H         7.1673441285        6.8744547570        5.4695324023
  H         7.1676974442        6.0220173597        7.0218812609
       8
 i =      18, E =      -14.9559535703
  C         6.7639332112        5.9999367113        5.9997196859
  C         5.2359742268        6.0000770490        6.0003068494
  H         4.8330114588        5.1032143276        6.4926635078
  H         4.8328900570        6.0217048371        4.9775437634
  H         4.8328441865        6.8748541816        6.5303098486
  H         7.1673157026        5.1035905676        5.5077530211
  H         7.1673441285        6.8744547570        5.4695324023
  H         7.1676974442        6.0220173597        7.0218812609
       8
 i =      19, E =      -14.9559535703
  C         6.7639332112        5.9999367113        5.9997196859
  C         5.2359742268        6.0000770490        6.0003068494
  H         4.8330114588        5.1032143276        6.4926635078
  H         4.8328900570        6.0217048371        4.9775437634
  H         4.8328441865        6.8748541816        6.5303098486
  H         7.1673157026        5.1035905676        5.5077530211
  H         7.1673441285        6.8744547570        5.4695324023
  H         7.1676974442        6.0220173597        7.0218812609
       8
 i =      20, E =      -14.9559535703
  C         6.7639332112        5.9999367113        5.9997196859
  C         5.2359742268        6.0000770490        6.0003068494
  H         4.8330114588        5.1032143276        6.4926635078
  H         4.8328900570        6.0217048371        4.9775437634
  H         4.8328441865        6.8748541816        6.5303098486
  H         7.1673157026        5.1035905676        5.5077530211
  H         7.1673441285        6.8744547570        5.4695324023
  H         7.1676974442        6.0220173597        7.0218812609
       8
 i =      21, E =      -14.9559535703
  C         6.7639332112        5.9999367113        5.9997196859
  C         5.2359742268        6.0000770490        6.0003068494
  H         4.8330114588        5.1032143276        6.4926635078
  H         4.8328900570        6.0217048371        4.9775437634
  H         4.8328441865        6.8748541816        6.5303098486
  H         7.1673157026        5.1035905676        5.5077530211
  H         7.1673441285        6.8744547570        5.4695324023
  H         7.1676974442        6.0220173597        7.0218812609
       8
 i =      22, E =      -14.9559535703
  C         6.7639332112        5.9999367113        5.9997196859
  C         5.2359742268        6.0000770490        6.0003068494
  H         4.8330114588        5.1032143276        6.4926635078
  H         4.8328900570        6.0217048371        4.9775437634
  H         4.8328441865        6.8748541816        6.5303098486
  H         7.1673157026        5.1035905676        5.5077530211
  H         7.1673441285        6.8744547570        5.4695324023
  H         7.1676974442        6.0220173597        7.0218812609
       8
 i =      23, E =      -14.9559535703
  C         6.7639332112        5.9999367113        5.9997196859
  C         5.2359742268        6.0000770490        6.0003068494
  H         4.8330114588        5.1032143276        6.4926635078
  H         4.8328900570        6.0217048371        4.9775437634
  H         4.8328441865        6.8748541816        6.5303098486
  H         7.1673157026        5.1035905676        5.5077530211
  H         7.1673441285        6.8744547570        5.4695324023
  H         7.1676974442        6.0220173597        7.0218812609
       8
 i =      24, E =      -14.9559535703
  C         6.7639332112        5.9999367113        5.9997196859
  C         5.2359742268        6.0000770490        6.0003068494
  H         4.8330114588        5.1032143276        6.4926635078
  H         4.8328900570        6.0217048371        4.9775437634
  H         4.8328441865        6.8748541816        6.5303098486
  H         7.1673157026        5.1035905676        5.5077530211
  H         7.1673441285        6.8744547570        5.4695324023
  H         7.1676974442        6.0220173597        7.0218812609
       8
 i =       0, E =      -14.9559535733
  C         6.7639332158        5.9999583134        5.9997284596
  C         5.2359742214        6.0000554415        6.0002980760
  H         4.8330311228        5.1031283741        6.4925536068
  H         4.8329011935        6.0217818862        4.9775326900
  H         4.8328133882        6.8747641621        6.5303905556
  H         7.1673466722        5.1036764965        5.5076699965
  H         7.1673255296        6.8745447880        5.4696399050
  H         7.1676850796        6.0219403888        7.0218970451
       8
 i =       1, E =      -14.9559535733
  C         6.7639332158        5.9999583134        5.9997284596
  C         5.2359742214        6.0000554415        6.0002980760
  H         4.8330311228        5.1031283741        6.4925536068
  H         4.8329011935        6.0217818862        4.9775326900
  H         4.8328133882        6.8747641621        6.5303905556
  H         7.1673466722        5.1036764965        5.5076699965
  H         7.1673255296        6.8745447880        5.4696399050
  H         7.1676850796        6.0219403888        7.0218970451
       8
 i =       2, E =      -14.9559535733
  C         6.7639332158        5.9999583134        5.9997284596
  C         5.2359742214        6.0000554415        6.0002980760
  H         4.8330311228        5.1031283741        6.4925536068
  H         4.8329011935        6.0217818862        4.9775326900
  H         4.8328133882        6.8747641621        6.5303905556
  H         7.1673466722        5.1036764965        5.5076699965
  H         7.1673255296        6.8745447880        5.4696399050
  H         7.1676850796        6.0219403888        7.0218970451
       8
 i =       3, E =      -14.9559535733
  C         6.7639332158        5.9999583134        5.9997284596
  C         5.2359742214        6.0000554415        6.0002980760
  H         4.8330311228        5.1031283741        6.4925536068
  H         4.8329011935        6.0217818862        4.9775326900
  H         4.8328133882        6.8747641621        6.5303905556
  H         7.1673466722        5.1036764965        5.5076699965
  H         7.1673255296        6.8745447880        5.4696399050
  H         7.1676850796        6.0219403888        7.0218970451
       8
 i =       4, E =      -14.9559535733
  C         6.7639332158        5.9999583134        5.9997284596
  C         5.2359742214        6.0000554415        6.0002980760
  H         4.8330311228        5.1031283741        6.4925536068
  H         4.8329011935        6.0217818862        4.9775326900
  H         4.8328133882        6.8747641621        6.5303905556
  H         7.1673466722        5.1036764965        5.5076699965
  H         7.1673255296        6.8745447880        5.4696399050
  H         7.1676850796        6.0219403888        7.0218970451
       8
 i =       5, E =      -14.9559535733
  C         6.7639332158        5.9999583134        5.9997284596
  C         5.2359742214        6.0000554415        6.0002980760
  H         4.8330311228        5.1031283741        6.4925536068
  H         4.8329011935        6.0217818862        4.9775326900
  H         4.8328133882        6.8747641621        6.5303905556
  H         7.1673466722        5.1036764965        5.5076699965
  H         7.1673255296        6.8745447880        5.4696399050
  H         7.1676850796        6.0219403888        7.0218970451
       8
 i =       6, E =      -14.9559535733
  C         6.7639332158        5.9999583134        5.9997284596
  C         5.2359742214        6.0000554415        6.0002980760
  H         4.8330311228        5.1031283741        6.4925536068
  H         4.8329011935        6.0217818862        4.9775326900
  H         4.8328133882        6.8747641621        6.5303905556
  H         7.1673466722        5.1036764965        5.5076699965
  H         7.1673255296        6.8745447880        5.4696399050
  H         7.1676850796        6.0219403888        7.0218970451
       8
 i =       7, E =      -14.9559535733
  C         6.7639332158        5.9999583134        5.9997284596
  C         5.2359742214        6.0000554415        6.0002980760
  H         4.8330311228        5.1031283741        6.4925536068
  H         4.8329011935        6.0217818862        4.9775326900
  H         4.8328133882        6.8747641621        6.5303905556
  H         7.1673466722        5.1036764965        5.5076699965
  H         7.1673255296        6.8745447880        5.4696399050
  H         7.1676850796        6.0219403888        7.0218970451
       8
 i =       8, E =      -14.9559535733
  C         6.7639332158        5.9999583134        5.9997284596
  C         5.2359742214        6.0000554415        6.0002980760
  H         4.8330311228        5.1031283741        6.4925536068
  H         4.8329011935        6.0217818862        4.9775326900
  H         4.8328133882        6.8747641621        6.5303905556
  H         7.1673466722        5.1036764965        5.5076699965
  H         7.1673255296        6.8745447880        5.4696399050
  H         7.1676850796        6.0219403888        7.0218970451
       8
 i =       9, E =      -14.9559535733
  C         6.7639332158        5.9999583134        5.9997284596
  C         5.2359742214        6.0000554415        6.0002980760
  H         4.8330311228        5.1031283741        6.4925536068
  H         4.8329011935        6.0217818862        4.9775326900
  H         4.8328133882        6.8747641621        6.5303905556
  H         7.1673466722        5.1036764965        5.5076699965
  H         7.1673255296        6.8745447880        5.4696399050
  H         7.1676850796        6.0219403888        7.0218970451
       8
 i =      10, E =      -14.9559535733
  C         6.7639332158        5.9999583134        5.9997284596
  C         5.2359742214        6.0000554415        6.0002980760
  H         4.8330311228        5.1031283741        6.4925536068
  H         4.8329011935        6.0217818862        4.9775326900
  H         4.8328133882        6.8747641621        6.5303905556
  H         7.1673466722        5.1036764965        5.5076699965
  H         7.1673255296        6.8745447880        5.4696399050
  H         7.1676850796        6.0219403888        7.0218970451
       8
 i =      11, E =      -14.9559535733
  C         6.7639332158        5.9999583134        5.9997284596
  C         5.2359742214        6.0000554415        6.0002980760
  H         4.8330311228        5.1031283741        6.4925536068
  H         4.8329011935        6.0217818862        4.9775326900
  H         4.8328133882        6.8747641621        6.5303905556
  H         7.1673466722        5.1036764965        5.5076699965
  H         7.1673255296        6.8745447880        5.4696399050
  H         7.1676850796        6.0219403888        7.0218970451
       8
 i =      12, E =      -14.9559535733
  C         6.7639332158        5.9999583134        5.9997284596
  C         5.2359742214        6.0000554415        6.0002980760
  H         4.8330311228        5.1031283741        6.4925536068
  H         4.8329011935        6.0217818862        4.9775326900
  H         4.8328133882        6.8747641621        6.5303905556
  H         7.1673466722        5.1036764965        5.5076699965
  H         7.1673255296        6.8745447880        5.4696399050
  H         7.1676850796        6.0219403888        7.0218970451
       8
 i =      13, E =      -14.9559535733
  C         6.7639332158        5.9999583134        5.9997284596
  C         5.2359742214        6.0000554415        6.0002980760
  H         4.8330311228        5.1031283741        6.4925536068
  H         4.8329011935        6.0217818862        4.9775326900
  H         4.8328133882        6.8747641621        6.5303905556
  H         7.1673466722        5.1036764965        5.5076699965
  H         7.1673255296        6.8745447880        5.4696399050
  H         7.1676850796        6.0219403888        7.0218970451
       8
 i =      14, E =      -14.9559535733
  C         6.7639332158        5.9999583134        5.9997284596
  C         5.2359742214        6.0000554415        6.0002980760
  H         4.8330311228        5.1031283741        6.4925536068
  H         4.8329011935        6.0217818862        4.9775326900
  H         4.8328133882        6.8747641621        6.5303905556
  H         7.1673466722        5.1036764965        5.5076699965
  H         7.1673255296        6.8745447880        5.4696399050
  H         7.1676850796        6.0219403888        7.0218970451
       8
 i =      15, E =      -14.9559535733
  C         6.7639332158        5.9999583134        5.9997284596
  C         5.2359742214        6.0000554415        6.0002980760
  H         4.8330311228        5.1031283741        6.4925536068
  H         4.8329011935        6.0217818862        4.9775326900
  H         4.8328133882        6.8747641621        6.5303905556
  H         7.1673466722        5.1036764965        5.5076699965
  H         7.1673255296        6.8745447880        5.4696399050
  H         7.1676850796        6.0219403888        7.0218970451
       8
 i =      16, E =      -14.9559535733
  C         6.7639332158        5.9999583134        5.9997284596
  C         5.2359742214        6.0000554415        6.0002980760
  H         4.8330311228        5.1031283741        6.4925536068
  H         4.8329011935        6.0217818862        4.9775326900
  H         4.8328133882        6.8747641621        6.5303905556
  H         7.1673466722        5.1036764965        5.5076699965
  H         7.1673255296        6.8745447880        5.4696399050
  H         7.1676850796        6.0219403888        7.0218970451
       8
 i =      17, E =      -14.9559535733
  C         6.7639332158        5.9999583134        5.9997284596
  C         5.2359742214        6.0000554415        6.0002980760
  H         4.8330311228        5.1031283741        6.4925536068
  H         4.8329011935        6.0217818862        4.9775326900
  H         4.8328133882        6.8747641621        6.5303905556
  H         7.1673466722        5.1036764965        5.5076699965
  H         7.1673255296        6.8745447880        5.4696399050
  H         7.1676850796        6.0219403888        7.0218970451
       8
 i =      18, E =      -14.9559535733
  C         6.7639332158        5.9999583134        5.9997284596
  C         5.2359742214        6.0000554415        6.0002980760
  H         4.8330311228        5.1031283741        6.4925536068
  H         4.8329011935        6.0217818862        4.9775326900
  H         4.8328133882        6.8747641621        6.5303905556
  H         7.1673466722        5.1036764965        5.5076699965
  H         7.1673255296        6.8745447880        5.4696399050
  H         7.1676850796        6.0219403888        7.0218970451
       8
 i =      19, E =      -14.9559535733
  C         6.7639332158        5.9999583134        5.9997284596
  C         5.2359742214        6.0000554415        6.0002980760
  H         4.8330311228        5.1031283741        6.4925536068
  H         4.8329011935        6.0217818862        4.9775326900
  H         4.8328133882        6.8747641621        6.5303905556
  H         7.1673466722        5.1036764965        5.5076699965
  H         7.1673255296        6.8745447880        5.4696399050
  H         7.1676850796        6.0219403888        7.0218970451
       8
 i =      20, E =      -14.9559535733
  C         6.7639332158        5.9999583134        5.9997284596
  C         5.2359742214        6.0000554415        6.0002980760
  H         4.8330311228        5.1031283741        6.4925536068
  H         4.8329011935        6.0217818862        4.9775326900
  H         4.8328133882        6.8747641621        6.5303905556
  H         7.1673466722        5.1036764965        5.5076699965
  H         7.1673255296        6.8745447880        5.4696399050
  H         7.1676850796        6.0219403888        7.0218970451
       8
 i =      21, E =      -14.9559535733
  C         6.7639332158        5.9999583134        5.9997284596
  C         5.2359742214        6.0000554415        6.0002980760
  H         4.8330311228        5.1031283741        6.4925536068
  H         4.8329011935        6.0217818862        4.9775326900
  H         4.8328133882        6.8747641621        6.5303905556
  H         7.1673466722        5.1036764965        5.5076699965
  H         7.1673255296        6.8745447880        5.4696399050
  H         7.1676850796        6.0219403888        7.0218970451
       8
 i =      22, E =      -14.9559535733
  C         6.7639332158        5.9999583134        5.9997284596
  C         5.2359742214        6.0000554415        6.0002980760
  H         4.8330311228        5.1031283741        6.4925536068
  H         4.8329011935        6.0217818862        4.9775326900
  H         4.8328133882        6.8747641621        6.5303905556
  H         7.1673466722        5.1036764965        5.5076699965
  H         7.1673255296        6.8745447880        5.4696399050
  H         7.1676850796        6.0219403888        7.0218970451
       8
 i =      23, E =      -14.9559535733
  C         6.7639332158        5.9999583134        5.9997284596
  C         5.2359742214        6.0000554415        6.0002980760
  H         4.8330311228        5.1031283741        6.4925536068
  H         4.8329011935        6.0217818862        4.9775326900
  H         4.8328133882        6.8747641621        6.5303905556
  H         7.1673466722        5.1036764965        5.5076699965
  H         7.1673255296        6.8745447880        5.4696399050
  H         7.1676850796        6.0219403888        7.0218970451
       8
 i =      24, E =      -14.9559535733
  C         6.7639332158        5.9999583134        5.9997284596
  C         5.2359742214        6.0000554415        6.0002980760
  H         4.8330311228        5.1031283741        6.4925536068
  H         4.8329011935        6.0217818862        4.9775326900
  H         4.8328133882        6.8747641621        6.5303905556
  H         7.1673466722        5.1036764965        5.5076699965
  H         7.1673255296        6.8745447880        5.4696399050
  H         7.1676850796        6.0219403888        7.0218970451
       8
 i =      25, E =      -14.9559535733
  C         6.7639332158        5.9999583134        5.9997284596
  C         5.2359742214        6.0000554415        6.0002980760
  H         4.8330311228        5.1031283741        6.4925536068
  H         4.8329011935        6.0217818862        4.9775326900
  H         4.8328133882        6.8747641621        6.5303905556
  H         7.1673466722        5.1036764965        5.5076699965
  H         7.1673255296        6.8745447880        5.4696399050
  H         7.1676850796        6.0219403888        7.0218970451
       8
 i =      26, E =      -14.9559535733
  C         6.7639332158        5.9999583134        5.9997284596
  C         5.2359742214        6.0000554415        6.0002980760
  H         4.8330311228        5.1031283741        6.4925536068
  H         4.8329011935        6.0217818862        4.9775326900
  H         4.8328133882        6.8747641621        6.5303905556
  H         7.1673466722        5.1036764965        5.5076699965
  H         7.1673255296        6.8745447880        5.4696399050
  H         7.1676850796        6.0219403888        7.0218970451
       8
 i =      27, E =      -14.9559535733
  C         6.7639332158        5.9999583134        5.9997284596
  C         5.2359742214        6.0000554415        6.0002980760
  H         4.8330311228        5.1031283741        6.4925536068
  H         4.8329011935        6.0217818862        4.9775326900
  H         4.8328133882        6.8747641621        6.5303905556
  H         7.1673466722        5.1036764965        5.5076699965
  H         7.1673255296        6.8745447880        5.4696399050
  H         7.1676850796        6.0219403888        7.0218970451
       8
 i =      28, E =      -14.9559535733
  C         6.7639332158        5.9999583134        5.9997284596
  C         5.2359742214        6.0000554415        6.0002980760
  H         4.8330311228        5.1031283741        6.4925536068
  H         4.8329011935        6.0217818862        4.9775326900
  H         4.8328133882        6.8747641621        6.5303905556
  H         7.1673466722        5.1036764965        5.5076699965
  H         7.1673255296        6.8745447880        5.4696399050
  H         7.1676850796        6.0219403888        7.0218970451
       8
 i =      29, E =      -14.9559535733
  C         6.7639332158        5.9999583134        5.9997284596
  C         5.2359742214        6.0000554415        6.0002980760
  H         4.8330311228        5.1031283741        6.4925536068
  H         4.8329011935        6.0217818862        4.9775326900
  H         4.8328133882        6.8747641621        6.5303905556
  H         7.1673466722        5.1036764965        5.5076699965
  H         7.1673255296        6.8745447880        5.4696399050
  H         7.1676850796        6.0219403888        7.0218970451
       8
 i =      30, E =      -14.9559535733
  C         6.7639332158        5.9999583134        5.9997284596
  C         5.2359742214        6.0000554415        6.0002980760
  H         4.8330311228        5.1031283741        6.4925536068
  H         4.8329011935        6.0217818862        4.9775326900
  H         4.8328133882        6.8747641621        6.5303905556
  H         7.1673466722        5.1036764965        5.5076699965
  H         7.1673255296        6.8745447880        5.4696399050
  H         7.1676850796        6.0219403888        7.0218970451
       8
 i =      31, E =      -14.9559535733
  C         6.7639332158        5.9999583134        5.9997284596
  C         5.2359742214        6.0000554415        6.0002980760
  H         4.8330311228        5.1031283741        6.4925536068
  H         4.8329011935        6.0217818862        4.9775326900
  H         4.8328133882        6.8747641621        6.5303905556
  H         7.1673466722        5.1036764965        5.5076699965
  H         7.1673255296        6.8745447880        5.4696399050
  H         7.1676850796        6.0219403888        7.0218970451
