       8
 i =      31, E =      -14.9559722838
  C         6.7640435612        6.0000000003        5.9997401503
  C         5.2359564388        5.9999999997        6.0002598497
  H         4.8332682152        6.0000000001        7.0232923722
  H         4.8330445407        5.1142018851        5.4887808109
  H         4.8330445407        6.8857981148        5.4887808113
  H         7.1667317848        5.9999999999        4.9767076278
  H         7.1669554593        6.8857981149        6.5112191891
  H         7.1669554593        5.1142018852        6.5112191887
       8
 i =      31, E =      -14.9550054842
  C         6.7656152726        6.0004028122        6.0001903722
  C         5.2343859492        6.0004380268        5.9998128850
  H         4.8290710815        5.8320698855        7.0076024577
  H         4.8293696985        5.2118460407        5.3500389339
  H         4.8293434664        6.9573018303        5.6412698631
  H         7.1709190173        5.8319897695        4.9923996708
  H         7.1707172704        6.9572177759        6.3587278401
  H         7.1705823204        5.2117645985        6.6499706614
       8
 i =      31, E =      -14.9530187684
  C         6.7688860463        6.0001719793        5.9996830682
  C         5.2311130225        6.0002186890        6.0003196599
  H         4.8228697320        5.6683174070        6.9647553294
  H         4.8221849189        5.3310697517        5.2309664424
  H         4.8223894414        7.0012351250        5.8058675074
  H         7.1771034513        5.6682142409        5.0352458761
  H         7.1776884800        7.0011272096        6.1941297992
  H         7.1777620445        5.3309719684        6.7690456314
       8
 i =      31, E =      -14.9518254482
  C         6.7708934188        6.0007547618        5.9997451527
  C         5.2291061952        6.0008076747        6.0002627660
  H         4.8190285447        5.5131655937        6.8949623893
  H         4.8184288335        5.4696718383        5.1309512246
  H         4.8187000595        7.0193690840        5.9755792309
  H         7.1809303824        5.5130677060        5.1050374169
  H         7.1813841214        7.0192557613        6.0244340467
  H         7.1815275547        5.4695600387        6.8690572237
       8
 i =      31, E =      -14.9522768699
  C         6.7701271067        6.0017323712        6.0003026092
  C         5.2298704921        6.0017910581        5.9996993134
  H         4.8199745153        5.3928311311        6.8169501955
  H         4.8204336809        5.5985511602        5.0635312320
  H         4.8201271743        7.0140552742        6.1182724886
  H         7.1799623503        5.3927010837        5.1830449462
  H         7.1799710342        7.0139163955        5.8817295104
  H         7.1795248398        5.5984268316        6.9364761786
       8
 i =      31, E =      -14.9538167114
  C         6.7675792936        5.9993893219        5.9991665632
  C         5.2324192261        5.9994436103        6.0008312817
  H         4.8258207189        5.2798510478        6.7249425954
  H         4.8241530689        5.7324825714        5.0162353023
  H         4.8254095185        6.9859597247        6.2627853213
  H         7.1741100227        5.2797238161        5.2750504835
  H         7.1746811699        6.9858285249        5.7372127005
  H         7.1758207066        5.7323681841        6.9837667810
       8
 i =      31, E =      -14.9554214966
  C         6.7649127726        6.0010828559        6.0003022264
  C         5.2350824902        6.0011244573        5.9996935925
  H         4.8306770427        5.1843523392        6.6144408848
  H         4.8311137149        5.8769870014        4.9848525247
  H         4.8307518376        6.9420770856        6.3992921743
  H         7.1692621916        5.1842606708        5.3855505947
  H         7.1693084180        6.9419842630        5.6007076297
  H         7.1688732311        5.8769010939        7.0151442006
       8
 i =      31, E =      -14.9559535733
  C         6.7639332158        5.9999583134        5.9997284596
  C         5.2359742214        6.0000554415        6.0002980760
  H         4.8330311228        5.1031283741        6.4925536068
  H         4.8329011935        6.0217818862        4.9775326900
  H         4.8328133882        6.8747641621        6.5303905556
  H         7.1673466722        5.1036764965        5.5076699965
  H         7.1673255296        6.8745447880        5.4696399050
  H         7.1676850796        6.0219403888        7.0218970451
