       8
 i =       0, E =      -14.9559722838
  C         6.7640435612        6.0000000003        5.9997401503
  C         5.2359564388        5.9999999997        6.0002598497
  H         4.8332682152        6.0000000001        7.0232923722
  H         4.8330445407        5.1142018851        5.4887808109
  H         4.8330445407        6.8857981148        5.4887808113
  H         7.1667317848        5.9999999999        4.9767076278
  H         7.1669554593        6.8857981149        6.5112191891
  H         7.1669554593        5.1142018852        6.5112191887
       8
 i =       1, E =      -14.9559722838
  C         6.7640435612        6.0000000003        5.9997401503
  C         5.2359564388        5.9999999997        6.0002598497
  H         4.8332682152        6.0000000001        7.0232923722
  H         4.8330445407        5.1142018851        5.4887808109
  H         4.8330445407        6.8857981148        5.4887808113
  H         7.1667317848        5.9999999999        4.9767076278
  H         7.1669554593        6.8857981149        6.5112191891
  H         7.1669554593        5.1142018852        6.5112191887
       8
 i =       2, E =      -14.9559722838
  C         6.7640435612        6.0000000003        5.9997401503
  C         5.2359564388        5.9999999997        6.0002598497
  H         4.8332682152        6.0000000001        7.0232923722
  H         4.8330445407        5.1142018851        5.4887808109
  H         4.8330445407        6.8857981148        5.4887808113
  H         7.1667317848        5.9999999999        4.9767076278
  H         7.1669554593        6.8857981149        6.5112191891
  H         7.1669554593        5.1142018852        6.5112191887
       8
 i =       3, E =      -14.9559722838
  C         6.7640435612        6.0000000003        5.9997401503
  C         5.2359564388        5.9999999997        6.0002598497
  H         4.8332682152        6.0000000001        7.0232923722
  H         4.8330445407        5.1142018851        5.4887808109
  H         4.8330445407        6.8857981148        5.4887808113
  H         7.1667317848        5.9999999999        4.9767076278
  H         7.1669554593        6.8857981149        6.5112191891
  H         7.1669554593        5.1142018852        6.5112191887
       8
 i =       4, E =      -14.9559722838
  C         6.7640435612        6.0000000003        5.9997401503
  C         5.2359564388        5.9999999997        6.0002598497
  H         4.8332682152        6.0000000001        7.0232923722
  H         4.8330445407        5.1142018851        5.4887808109
  H         4.8330445407        6.8857981148        5.4887808113
  H         7.1667317848        5.9999999999        4.9767076278
  H         7.1669554593        6.8857981149        6.5112191891
  H         7.1669554593        5.1142018852        6.5112191887
       8
 i =       5, E =      -14.9559722838
  C         6.7640435612        6.0000000003        5.9997401503
  C         5.2359564388        5.9999999997        6.0002598497
  H         4.8332682152        6.0000000001        7.0232923722
  H         4.8330445407        5.1142018851        5.4887808109
  H         4.8330445407        6.8857981148        5.4887808113
  H         7.1667317848        5.9999999999        4.9767076278
  H         7.1669554593        6.8857981149        6.5112191891
  H         7.1669554593        5.1142018852        6.5112191887
       8
 i =       6, E =      -14.9559722838
  C         6.7640435612        6.0000000003        5.9997401503
  C         5.2359564388        5.9999999997        6.0002598497
  H         4.8332682152        6.0000000001        7.0232923722
  H         4.8330445407        5.1142018851        5.4887808109
  H         4.8330445407        6.8857981148        5.4887808113
  H         7.1667317848        5.9999999999        4.9767076278
  H         7.1669554593        6.8857981149        6.5112191891
  H         7.1669554593        5.1142018852        6.5112191887
       8
 i =       7, E =      -14.9559722838
  C         6.7640435612        6.0000000003        5.9997401503
  C         5.2359564388        5.9999999997        6.0002598497
  H         4.8332682152        6.0000000001        7.0232923722
  H         4.8330445407        5.1142018851        5.4887808109
  H         4.8330445407        6.8857981148        5.4887808113
  H         7.1667317848        5.9999999999        4.9767076278
  H         7.1669554593        6.8857981149        6.5112191891
  H         7.1669554593        5.1142018852        6.5112191887
       8
 i =       8, E =      -14.9559722838
  C         6.7640435612        6.0000000003        5.9997401503
  C         5.2359564388        5.9999999997        6.0002598497
  H         4.8332682152        6.0000000001        7.0232923722
  H         4.8330445407        5.1142018851        5.4887808109
  H         4.8330445407        6.8857981148        5.4887808113
  H         7.1667317848        5.9999999999        4.9767076278
  H         7.1669554593        6.8857981149        6.5112191891
  H         7.1669554593        5.1142018852        6.5112191887
       8
 i =       9, E =      -14.9559722838
  C         6.7640435612        6.0000000003        5.9997401503
  C         5.2359564388        5.9999999997        6.0002598497
  H         4.8332682152        6.0000000001        7.0232923722
  H         4.8330445407        5.1142018851        5.4887808109
  H         4.8330445407        6.8857981148        5.4887808113
  H         7.1667317848        5.9999999999        4.9767076278
  H         7.1669554593        6.8857981149        6.5112191891
  H         7.1669554593        5.1142018852        6.5112191887
       8
 i =      10, E =      -14.9559722838
  C         6.7640435612        6.0000000003        5.9997401503
  C         5.2359564388        5.9999999997        6.0002598497
  H         4.8332682152        6.0000000001        7.0232923722
  H         4.8330445407        5.1142018851        5.4887808109
  H         4.8330445407        6.8857981148        5.4887808113
  H         7.1667317848        5.9999999999        4.9767076278
  H         7.1669554593        6.8857981149        6.5112191891
  H         7.1669554593        5.1142018852        6.5112191887
       8
 i =      11, E =      -14.9559722838
  C         6.7640435612        6.0000000003        5.9997401503
  C         5.2359564388        5.9999999997        6.0002598497
  H         4.8332682152        6.0000000001        7.0232923722
  H         4.8330445407        5.1142018851        5.4887808109
  H         4.8330445407        6.8857981148        5.4887808113
  H         7.1667317848        5.9999999999        4.9767076278
  H         7.1669554593        6.8857981149        6.5112191891
  H         7.1669554593        5.1142018852        6.5112191887
       8
 i =      12, E =      -14.9559722838
  C         6.7640435612        6.0000000003        5.9997401503
  C         5.2359564388        5.9999999997        6.0002598497
  H         4.8332682152        6.0000000001        7.0232923722
  H         4.8330445407        5.1142018851        5.4887808109
  H         4.8330445407        6.8857981148        5.4887808113
  H         7.1667317848        5.9999999999        4.9767076278
  H         7.1669554593        6.8857981149        6.5112191891
  H         7.1669554593        5.1142018852        6.5112191887
       8
 i =      13, E =      -14.9559722838
  C         6.7640435612        6.0000000003        5.9997401503
  C         5.2359564388        5.9999999997        6.0002598497
  H         4.8332682152        6.0000000001        7.0232923722
  H         4.8330445407        5.1142018851        5.4887808109
  H         4.8330445407        6.8857981148        5.4887808113
  H         7.1667317848        5.9999999999        4.9767076278
  H         7.1669554593        6.8857981149        6.5112191891
  H         7.1669554593        5.1142018852        6.5112191887
       8
 i =      14, E =      -14.9559722838
  C         6.7640435612        6.0000000003        5.9997401503
  C         5.2359564388        5.9999999997        6.0002598497
  H         4.8332682152        6.0000000001        7.0232923722
  H         4.8330445407        5.1142018851        5.4887808109
  H         4.8330445407        6.8857981148        5.4887808113
  H         7.1667317848        5.9999999999        4.9767076278
  H         7.1669554593        6.8857981149        6.5112191891
  H         7.1669554593        5.1142018852        6.5112191887
       8
 i =      15, E =      -14.9559722838
  C         6.7640435612        6.0000000003        5.9997401503
  C         5.2359564388        5.9999999997        6.0002598497
  H         4.8332682152        6.0000000001        7.0232923722
  H         4.8330445407        5.1142018851        5.4887808109
  H         4.8330445407        6.8857981148        5.4887808113
  H         7.1667317848        5.9999999999        4.9767076278
  H         7.1669554593        6.8857981149        6.5112191891
  H         7.1669554593        5.1142018852        6.5112191887
       8
 i =      16, E =      -14.9559722838
  C         6.7640435612        6.0000000003        5.9997401503
  C         5.2359564388        5.9999999997        6.0002598497
  H         4.8332682152        6.0000000001        7.0232923722
  H         4.8330445407        5.1142018851        5.4887808109
  H         4.8330445407        6.8857981148        5.4887808113
  H         7.1667317848        5.9999999999        4.9767076278
  H         7.1669554593        6.8857981149        6.5112191891
  H         7.1669554593        5.1142018852        6.5112191887
       8
 i =      17, E =      -14.9559722838
  C         6.7640435612        6.0000000003        5.9997401503
  C         5.2359564388        5.9999999997        6.0002598497
  H         4.8332682152        6.0000000001        7.0232923722
  H         4.8330445407        5.1142018851        5.4887808109
  H         4.8330445407        6.8857981148        5.4887808113
  H         7.1667317848        5.9999999999        4.9767076278
  H         7.1669554593        6.8857981149        6.5112191891
  H         7.1669554593        5.1142018852        6.5112191887
       8
 i =      18, E =      -14.9559722838
  C         6.7640435612        6.0000000003        5.9997401503
  C         5.2359564388        5.9999999997        6.0002598497
  H         4.8332682152        6.0000000001        7.0232923722
  H         4.8330445407        5.1142018851        5.4887808109
  H         4.8330445407        6.8857981148        5.4887808113
  H         7.1667317848        5.9999999999        4.9767076278
  H         7.1669554593        6.8857981149        6.5112191891
  H         7.1669554593        5.1142018852        6.5112191887
       8
 i =      19, E =      -14.9559722838
  C         6.7640435612        6.0000000003        5.9997401503
  C         5.2359564388        5.9999999997        6.0002598497
  H         4.8332682152        6.0000000001        7.0232923722
  H         4.8330445407        5.1142018851        5.4887808109
  H         4.8330445407        6.8857981148        5.4887808113
  H         7.1667317848        5.9999999999        4.9767076278
  H         7.1669554593        6.8857981149        6.5112191891
  H         7.1669554593        5.1142018852        6.5112191887
       8
 i =      20, E =      -14.9559722838
  C         6.7640435612        6.0000000003        5.9997401503
  C         5.2359564388        5.9999999997        6.0002598497
  H         4.8332682152        6.0000000001        7.0232923722
  H         4.8330445407        5.1142018851        5.4887808109
  H         4.8330445407        6.8857981148        5.4887808113
  H         7.1667317848        5.9999999999        4.9767076278
  H         7.1669554593        6.8857981149        6.5112191891
  H         7.1669554593        5.1142018852        6.5112191887
       8
 i =      21, E =      -14.9559722838
  C         6.7640435612        6.0000000003        5.9997401503
  C         5.2359564388        5.9999999997        6.0002598497
  H         4.8332682152        6.0000000001        7.0232923722
  H         4.8330445407        5.1142018851        5.4887808109
  H         4.8330445407        6.8857981148        5.4887808113
  H         7.1667317848        5.9999999999        4.9767076278
  H         7.1669554593        6.8857981149        6.5112191891
  H         7.1669554593        5.1142018852        6.5112191887
       8
 i =      22, E =      -14.9559722838
  C         6.7640435612        6.0000000003        5.9997401503
  C         5.2359564388        5.9999999997        6.0002598497
  H         4.8332682152        6.0000000001        7.0232923722
  H         4.8330445407        5.1142018851        5.4887808109
  H         4.8330445407        6.8857981148        5.4887808113
  H         7.1667317848        5.9999999999        4.9767076278
  H         7.1669554593        6.8857981149        6.5112191891
  H         7.1669554593        5.1142018852        6.5112191887
       8
 i =      23, E =      -14.9559722838
  C         6.7640435612        6.0000000003        5.9997401503
  C         5.2359564388        5.9999999997        6.0002598497
  H         4.8332682152        6.0000000001        7.0232923722
  H         4.8330445407        5.1142018851        5.4887808109
  H         4.8330445407        6.8857981148        5.4887808113
  H         7.1667317848        5.9999999999        4.9767076278
  H         7.1669554593        6.8857981149        6.5112191891
  H         7.1669554593        5.1142018852        6.5112191887
       8
 i =      24, E =      -14.9559722838
  C         6.7640435612        6.0000000003        5.9997401503
  C         5.2359564388        5.9999999997        6.0002598497
  H         4.8332682152        6.0000000001        7.0232923722
  H         4.8330445407        5.1142018851        5.4887808109
  H         4.8330445407        6.8857981148        5.4887808113
  H         7.1667317848        5.9999999999        4.9767076278
  H         7.1669554593        6.8857981149        6.5112191891
  H         7.1669554593        5.1142018852        6.5112191887
       8
 i =       0, E =      -14.9559722838
  C         6.7640435612        6.0000000003        5.9997401503
  C         5.2359564388        5.9999999997        6.0002598497
  H         4.8332682152        6.0000000001        7.0232923722
  H         4.8330445407        5.1142018851        5.4887808109
  H         4.8330445407        6.8857981148        5.4887808113
  H         7.1667317848        5.9999999999        4.9767076278
  H         7.1669554593        6.8857981149        6.5112191891
  H         7.1669554593        5.1142018852        6.5112191887
       8
 i =       1, E =      -14.9559722838
  C         6.7640435612        6.0000000003        5.9997401503
  C         5.2359564388        5.9999999997        6.0002598497
  H         4.8332682152        6.0000000001        7.0232923722
  H         4.8330445407        5.1142018851        5.4887808109
  H         4.8330445407        6.8857981148        5.4887808113
  H         7.1667317848        5.9999999999        4.9767076278
  H         7.1669554593        6.8857981149        6.5112191891
  H         7.1669554593        5.1142018852        6.5112191887
       8
 i =       2, E =      -14.9559722838
  C         6.7640435612        6.0000000003        5.9997401503
  C         5.2359564388        5.9999999997        6.0002598497
  H         4.8332682152        6.0000000001        7.0232923722
  H         4.8330445407        5.1142018851        5.4887808109
  H         4.8330445407        6.8857981148        5.4887808113
  H         7.1667317848        5.9999999999        4.9767076278
  H         7.1669554593        6.8857981149        6.5112191891
  H         7.1669554593        5.1142018852        6.5112191887
       8
 i =       3, E =      -14.9559722838
  C         6.7640435612        6.0000000003        5.9997401503
  C         5.2359564388        5.9999999997        6.0002598497
  H         4.8332682152        6.0000000001        7.0232923722
  H         4.8330445407        5.1142018851        5.4887808109
  H         4.8330445407        6.8857981148        5.4887808113
  H         7.1667317848        5.9999999999        4.9767076278
  H         7.1669554593        6.8857981149        6.5112191891
  H         7.1669554593        5.1142018852        6.5112191887
       8
 i =       4, E =      -14.9559722838
  C         6.7640435612        6.0000000003        5.9997401503
  C         5.2359564388        5.9999999997        6.0002598497
  H         4.8332682152        6.0000000001        7.0232923722
  H         4.8330445407        5.1142018851        5.4887808109
  H         4.8330445407        6.8857981148        5.4887808113
  H         7.1667317848        5.9999999999        4.9767076278
  H         7.1669554593        6.8857981149        6.5112191891
  H         7.1669554593        5.1142018852        6.5112191887
       8
 i =       5, E =      -14.9559722838
  C         6.7640435612        6.0000000003        5.9997401503
  C         5.2359564388        5.9999999997        6.0002598497
  H         4.8332682152        6.0000000001        7.0232923722
  H         4.8330445407        5.1142018851        5.4887808109
  H         4.8330445407        6.8857981148        5.4887808113
  H         7.1667317848        5.9999999999        4.9767076278
  H         7.1669554593        6.8857981149        6.5112191891
  H         7.1669554593        5.1142018852        6.5112191887
       8
 i =       6, E =      -14.9559722838
  C         6.7640435612        6.0000000003        5.9997401503
  C         5.2359564388        5.9999999997        6.0002598497
  H         4.8332682152        6.0000000001        7.0232923722
  H         4.8330445407        5.1142018851        5.4887808109
  H         4.8330445407        6.8857981148        5.4887808113
  H         7.1667317848        5.9999999999        4.9767076278
  H         7.1669554593        6.8857981149        6.5112191891
  H         7.1669554593        5.1142018852        6.5112191887
       8
 i =       7, E =      -14.9559722838
  C         6.7640435612        6.0000000003        5.9997401503
  C         5.2359564388        5.9999999997        6.0002598497
  H         4.8332682152        6.0000000001        7.0232923722
  H         4.8330445407        5.1142018851        5.4887808109
  H         4.8330445407        6.8857981148        5.4887808113
  H         7.1667317848        5.9999999999        4.9767076278
  H         7.1669554593        6.8857981149        6.5112191891
  H         7.1669554593        5.1142018852        6.5112191887
       8
 i =       8, E =      -14.9559722838
  C         6.7640435612        6.0000000003        5.9997401503
  C         5.2359564388        5.9999999997        6.0002598497
  H         4.8332682152        6.0000000001        7.0232923722
  H         4.8330445407        5.1142018851        5.4887808109
  H         4.8330445407        6.8857981148        5.4887808113
  H         7.1667317848        5.9999999999        4.9767076278
  H         7.1669554593        6.8857981149        6.5112191891
  H         7.1669554593        5.1142018852        6.5112191887
       8
 i =       9, E =      -14.9559722838
  C         6.7640435612        6.0000000003        5.9997401503
  C         5.2359564388        5.9999999997        6.0002598497
  H         4.8332682152        6.0000000001        7.0232923722
  H         4.8330445407        5.1142018851        5.4887808109
  H         4.8330445407        6.8857981148        5.4887808113
  H         7.1667317848        5.9999999999        4.9767076278
  H         7.1669554593        6.8857981149        6.5112191891
  H         7.1669554593        5.1142018852        6.5112191887
       8
 i =      10, E =      -14.9559722838
  C         6.7640435612        6.0000000003        5.9997401503
  C         5.2359564388        5.9999999997        6.0002598497
  H         4.8332682152        6.0000000001        7.0232923722
  H         4.8330445407        5.1142018851        5.4887808109
  H         4.8330445407        6.8857981148        5.4887808113
  H         7.1667317848        5.9999999999        4.9767076278
  H         7.1669554593        6.8857981149        6.5112191891
  H         7.1669554593        5.1142018852        6.5112191887
       8
 i =      11, E =      -14.9559722838
  C         6.7640435612        6.0000000003        5.9997401503
  C         5.2359564388        5.9999999997        6.0002598497
  H         4.8332682152        6.0000000001        7.0232923722
  H         4.8330445407        5.1142018851        5.4887808109
  H         4.8330445407        6.8857981148        5.4887808113
  H         7.1667317848        5.9999999999        4.9767076278
  H         7.1669554593        6.8857981149        6.5112191891
  H         7.1669554593        5.1142018852        6.5112191887
       8
 i =      12, E =      -14.9559722838
  C         6.7640435612        6.0000000003        5.9997401503
  C         5.2359564388        5.9999999997        6.0002598497
  H         4.8332682152        6.0000000001        7.0232923722
  H         4.8330445407        5.1142018851        5.4887808109
  H         4.8330445407        6.8857981148        5.4887808113
  H         7.1667317848        5.9999999999        4.9767076278
  H         7.1669554593        6.8857981149        6.5112191891
  H         7.1669554593        5.1142018852        6.5112191887
       8
 i =      13, E =      -14.9559722838
  C         6.7640435612        6.0000000003        5.9997401503
  C         5.2359564388        5.9999999997        6.0002598497
  H         4.8332682152        6.0000000001        7.0232923722
  H         4.8330445407        5.1142018851        5.4887808109
  H         4.8330445407        6.8857981148        5.4887808113
  H         7.1667317848        5.9999999999        4.9767076278
  H         7.1669554593        6.8857981149        6.5112191891
  H         7.1669554593        5.1142018852        6.5112191887
       8
 i =      14, E =      -14.9559722838
  C         6.7640435612        6.0000000003        5.9997401503
  C         5.2359564388        5.9999999997        6.0002598497
  H         4.8332682152        6.0000000001        7.0232923722
  H         4.8330445407        5.1142018851        5.4887808109
  H         4.8330445407        6.8857981148        5.4887808113
  H         7.1667317848        5.9999999999        4.9767076278
  H         7.1669554593        6.8857981149        6.5112191891
  H         7.1669554593        5.1142018852        6.5112191887
       8
 i =      15, E =      -14.9559722838
  C         6.7640435612        6.0000000003        5.9997401503
  C         5.2359564388        5.9999999997        6.0002598497
  H         4.8332682152        6.0000000001        7.0232923722
  H         4.8330445407        5.1142018851        5.4887808109
  H         4.8330445407        6.8857981148        5.4887808113
  H         7.1667317848        5.9999999999        4.9767076278
  H         7.1669554593        6.8857981149        6.5112191891
  H         7.1669554593        5.1142018852        6.5112191887
       8
 i =      16, E =      -14.9559722838
  C         6.7640435612        6.0000000003        5.9997401503
  C         5.2359564388        5.9999999997        6.0002598497
  H         4.8332682152        6.0000000001        7.0232923722
  H         4.8330445407        5.1142018851        5.4887808109
  H         4.8330445407        6.8857981148        5.4887808113
  H         7.1667317848        5.9999999999        4.9767076278
  H         7.1669554593        6.8857981149        6.5112191891
  H         7.1669554593        5.1142018852        6.5112191887
       8
 i =      17, E =      -14.9559722838
  C         6.7640435612        6.0000000003        5.9997401503
  C         5.2359564388        5.9999999997        6.0002598497
  H         4.8332682152        6.0000000001        7.0232923722
  H         4.8330445407        5.1142018851        5.4887808109
  H         4.8330445407        6.8857981148        5.4887808113
  H         7.1667317848        5.9999999999        4.9767076278
  H         7.1669554593        6.8857981149        6.5112191891
  H         7.1669554593        5.1142018852        6.5112191887
       8
 i =      18, E =      -14.9559722838
  C         6.7640435612        6.0000000003        5.9997401503
  C         5.2359564388        5.9999999997        6.0002598497
  H         4.8332682152        6.0000000001        7.0232923722
  H         4.8330445407        5.1142018851        5.4887808109
  H         4.8330445407        6.8857981148        5.4887808113
  H         7.1667317848        5.9999999999        4.9767076278
  H         7.1669554593        6.8857981149        6.5112191891
  H         7.1669554593        5.1142018852        6.5112191887
       8
 i =      19, E =      -14.9559722838
  C         6.7640435612        6.0000000003        5.9997401503
  C         5.2359564388        5.9999999997        6.0002598497
  H         4.8332682152        6.0000000001        7.0232923722
  H         4.8330445407        5.1142018851        5.4887808109
  H         4.8330445407        6.8857981148        5.4887808113
  H         7.1667317848        5.9999999999        4.9767076278
  H         7.1669554593        6.8857981149        6.5112191891
  H         7.1669554593        5.1142018852        6.5112191887
       8
 i =      20, E =      -14.9559722838
  C         6.7640435612        6.0000000003        5.9997401503
  C         5.2359564388        5.9999999997        6.0002598497
  H         4.8332682152        6.0000000001        7.0232923722
  H         4.8330445407        5.1142018851        5.4887808109
  H         4.8330445407        6.8857981148        5.4887808113
  H         7.1667317848        5.9999999999        4.9767076278
  H         7.1669554593        6.8857981149        6.5112191891
  H         7.1669554593        5.1142018852        6.5112191887
       8
 i =      21, E =      -14.9559722838
  C         6.7640435612        6.0000000003        5.9997401503
  C         5.2359564388        5.9999999997        6.0002598497
  H         4.8332682152        6.0000000001        7.0232923722
  H         4.8330445407        5.1142018851        5.4887808109
  H         4.8330445407        6.8857981148        5.4887808113
  H         7.1667317848        5.9999999999        4.9767076278
  H         7.1669554593        6.8857981149        6.5112191891
  H         7.1669554593        5.1142018852        6.5112191887
       8
 i =      22, E =      -14.9559722838
  C         6.7640435612        6.0000000003        5.9997401503
  C         5.2359564388        5.9999999997        6.0002598497
  H         4.8332682152        6.0000000001        7.0232923722
  H         4.8330445407        5.1142018851        5.4887808109
  H         4.8330445407        6.8857981148        5.4887808113
  H         7.1667317848        5.9999999999        4.9767076278
  H         7.1669554593        6.8857981149        6.5112191891
  H         7.1669554593        5.1142018852        6.5112191887
       8
 i =      23, E =      -14.9559722838
  C         6.7640435612        6.0000000003        5.9997401503
  C         5.2359564388        5.9999999997        6.0002598497
  H         4.8332682152        6.0000000001        7.0232923722
  H         4.8330445407        5.1142018851        5.4887808109
  H         4.8330445407        6.8857981148        5.4887808113
  H         7.1667317848        5.9999999999        4.9767076278
  H         7.1669554593        6.8857981149        6.5112191891
  H         7.1669554593        5.1142018852        6.5112191887
       8
 i =      24, E =      -14.9559722838
  C         6.7640435612        6.0000000003        5.9997401503
  C         5.2359564388        5.9999999997        6.0002598497
  H         4.8332682152        6.0000000001        7.0232923722
  H         4.8330445407        5.1142018851        5.4887808109
  H         4.8330445407        6.8857981148        5.4887808113
  H         7.1667317848        5.9999999999        4.9767076278
  H         7.1669554593        6.8857981149        6.5112191891
  H         7.1669554593        5.1142018852        6.5112191887
       8
 i =      25, E =      -14.9559722838
  C         6.7640435612        6.0000000003        5.9997401503
  C         5.2359564388        5.9999999997        6.0002598497
  H         4.8332682152        6.0000000001        7.0232923722
  H         4.8330445407        5.1142018851        5.4887808109
  H         4.8330445407        6.8857981148        5.4887808113
  H         7.1667317848        5.9999999999        4.9767076278
  H         7.1669554593        6.8857981149        6.5112191891
  H         7.1669554593        5.1142018852        6.5112191887
       8
 i =      26, E =      -14.9559722838
  C         6.7640435612        6.0000000003        5.9997401503
  C         5.2359564388        5.9999999997        6.0002598497
  H         4.8332682152        6.0000000001        7.0232923722
  H         4.8330445407        5.1142018851        5.4887808109
  H         4.8330445407        6.8857981148        5.4887808113
  H         7.1667317848        5.9999999999        4.9767076278
  H         7.1669554593        6.8857981149        6.5112191891
  H         7.1669554593        5.1142018852        6.5112191887
       8
 i =      27, E =      -14.9559722838
  C         6.7640435612        6.0000000003        5.9997401503
  C         5.2359564388        5.9999999997        6.0002598497
  H         4.8332682152        6.0000000001        7.0232923722
  H         4.8330445407        5.1142018851        5.4887808109
  H         4.8330445407        6.8857981148        5.4887808113
  H         7.1667317848        5.9999999999        4.9767076278
  H         7.1669554593        6.8857981149        6.5112191891
  H         7.1669554593        5.1142018852        6.5112191887
       8
 i =      28, E =      -14.9559722838
  C         6.7640435612        6.0000000003        5.9997401503
  C         5.2359564388        5.9999999997        6.0002598497
  H         4.8332682152        6.0000000001        7.0232923722
  H         4.8330445407        5.1142018851        5.4887808109
  H         4.8330445407        6.8857981148        5.4887808113
  H         7.1667317848        5.9999999999        4.9767076278
  H         7.1669554593        6.8857981149        6.5112191891
  H         7.1669554593        5.1142018852        6.5112191887
       8
 i =      29, E =      -14.9559722838
  C         6.7640435612        6.0000000003        5.9997401503
  C         5.2359564388        5.9999999997        6.0002598497
  H         4.8332682152        6.0000000001        7.0232923722
  H         4.8330445407        5.1142018851        5.4887808109
  H         4.8330445407        6.8857981148        5.4887808113
  H         7.1667317848        5.9999999999        4.9767076278
  H         7.1669554593        6.8857981149        6.5112191891
  H         7.1669554593        5.1142018852        6.5112191887
       8
 i =      30, E =      -14.9559722838
  C         6.7640435612        6.0000000003        5.9997401503
  C         5.2359564388        5.9999999997        6.0002598497
  H         4.8332682152        6.0000000001        7.0232923722
  H         4.8330445407        5.1142018851        5.4887808109
  H         4.8330445407        6.8857981148        5.4887808113
  H         7.1667317848        5.9999999999        4.9767076278
  H         7.1669554593        6.8857981149        6.5112191891
  H         7.1669554593        5.1142018852        6.5112191887
       8
 i =      31, E =      -14.9559722838
  C         6.7640435612        6.0000000003        5.9997401503
  C         5.2359564388        5.9999999997        6.0002598497
  H         4.8332682152        6.0000000001        7.0232923722
  H         4.8330445407        5.1142018851        5.4887808109
  H         4.8330445407        6.8857981148        5.4887808113
  H         7.1667317848        5.9999999999        4.9767076278
  H         7.1669554593        6.8857981149        6.5112191891
  H         7.1669554593        5.1142018852        6.5112191887
