      29
 i =      102, E =      -158.8994669769
  C         6.2671830948        8.1447397846       10.6997752495
  C         7.3767068628        8.8707216178       11.1010265838
  C         8.5177030098        9.3150495730       10.3850542560
  C         8.7085316638        9.1302803126        8.9809842026
  C         9.5408096554       10.0216725272       11.0870551257
  C         9.8260011349        9.6164521548        8.3439322360
  C        10.6723424126       10.4958090905       10.4626921824
  C        10.8705349517       10.3063293540        9.0528679480
  O        11.9172778756       10.7274381334        8.4199139976
  C         4.8497058355        7.0203394400        9.5065167861
  C         5.1411828596        7.8638468092       11.5987346612
  N         6.0204821900        7.5959775353        9.4282435669
  O         4.9058460614        8.1478300045       12.7808710743
  N         4.2622065583        7.1319259817       10.7532665217
  H         7.3427446463        9.1509652159       12.1603032546
  H         7.9388640908        8.5956276402        8.4247106438
  H         9.4043071712       10.1923922088       12.1588858493
  H         9.9639794117        9.4821952134        7.2691468191
  H        11.4339648603       11.0472519702       11.0151792682
  H        13.0316789524       11.0223407436        9.0814722842
  H         4.3631494580        6.4911343421        8.6888698392
  H         3.3579807864        6.7782164103       11.0530800372
  C        15.8350752524       12.5008245126       10.2375112021
  C        14.3456659646       12.2841875467        9.9970222796
  O        14.0819751223       11.1138834523        9.4462851514
  O        13.5164140448       13.1520015923       10.2795047396
  H        16.2770592022       12.9100201826        9.3161611005
  H        15.9856476216       13.2296401036       11.0421928764
  H        16.3493482950       11.5585490372       10.4652681600
